<?xml version="1.0" encoding="UTF-8"?>

<!-- generated on 07/09/20 10:58:37 by Eclipse SUMO polyconvert Version 1.6.0
<configuration xmlns:xsi="http://www.w3.org/2001/XMLSchema-instance" xsi:noNamespaceSchemaLocation="http://sumo.dlr.de/xsd/polyconvertConfiguration.xsd">

    <input>
        <net-file value="Canterbury.net.xml"/>
        <osm-files value="Canterbury.osm"/>
        <type-file value="Canterbury1.poly.xml"/>
    </input>

    <output>
        <output-file value="Canterbury2.poly.xml"/>
    </output>

    <processing>
        <poi-layer-offset value="5"/>
    </processing>

</configuration>
-->

<additional xmlns:xsi="http://www.w3.org/2001/XMLSchema-instance" xsi:noNamespaceSchemaLocation="http://sumo.dlr.de/xsd/additional_file.xsd">
    <location netOffset="-361714.16,-5680293.94" convBoundary="0.00,-569.27,8459.21,4756.93" origBoundary="1.018199,51.253832,1.139325,51.301779" projParameter="+proj=utm +zone=31 +ellps=WGS84 +datum=WGS84 +units=m +no_defs"/>

    <poly id="107247942" type="landuse" color="194,194,130" fill="1" layer="-3.00" shape="2920.700869,1483.455652 2974.456998,1510.264981 2948.521456,1542.295854 3096.219668,1639.741986 3146.699748,1556.257027 3206.116268,1587.370242 3200.307727,1601.343513 3202.897998,1614.338591 3208.328269,1621.483712 3222.444145,1631.381862 3321.954854,1692.050136 3299.119955,1727.892014 3303.473974,1730.492294 3332.412092,1747.733488 3363.050131,1766.454482 3421.778871,1802.339500 3424.107024,1804.080799 3454.660101,1822.782295 3493.838952,1846.764886 3543.544405,1877.191610 3619.970400,1923.172886 3808.924405,1872.541039 3824.611859,1817.438865 3635.633359,1663.897265 3441.944518,1545.559254 3354.173500,1497.364490 3242.065434,1390.816141 3246.617486,1383.708200 3264.013710,1383.249541 3269.191165,1375.769061 3249.805028,1362.704922 3226.483704,1351.558367 3196.563473,1337.403571 3076.017543,1329.257016 3012.005592,1392.803845 2920.700869,1483.455652"/>
    <poly id="107253032" type="landuse" color="194,194,130" fill="1" layer="-3.00" shape="3913.370766,3012.430156 3889.888279,2971.152646 3923.084268,2952.366371 3946.566266,2993.632909 3913.370766,3012.430156"/>
    <poly id="107253359" type="tourism" color="207,245,201" fill="1" layer="-2.00" shape="3731.334958,2304.913364 3712.643007,2292.063084 3714.847346,2274.502020 3715.477774,2252.286636 3706.630764,2236.173275 3690.606358,2226.847044 3665.793403,2212.399727 3659.412203,2171.430142 3665.233041,2158.703329 3727.034553,2186.421303 3744.246444,2202.426161 3759.503668,2220.006859 3774.822934,2237.296660 3786.907972,2257.397631 3796.370600,2309.179937 3807.072129,2326.301813 3820.830393,2342.631286 3771.014124,2375.752589 3747.501928,2323.660723 3731.334958,2304.913364"/>
    <poly id="108652190" type="amenity" color="237,199,199" fill="1" layer="-1.00" shape="4257.662215,2532.434625 4260.509082,2535.887412 4257.018000,2537.948317 4260.385042,2548.742552 4277.867073,2575.179310 4282.344275,2572.135669 4281.092719,2570.176664 4310.814995,2553.164215 4308.662915,2549.593074 4311.359888,2547.586368 4306.682305,2539.508049 4311.870847,2535.911717 4298.640734,2515.416751 4281.077451,2513.339438 4260.155614,2526.917032 4261.901190,2529.619748 4257.662215,2532.434625"/>
    <poly id="108652190#1" type="building" color="255,230,230" fill="1" layer="-1.00" shape="4257.662215,2532.434625 4260.509082,2535.887412 4257.018000,2537.948317 4260.385042,2548.742552 4277.867073,2575.179310 4282.344275,2572.135669 4281.092719,2570.176664 4310.814995,2553.164215 4308.662915,2549.593074 4311.359888,2547.586368 4306.682305,2539.508049 4311.870847,2535.911717 4298.640734,2515.416751 4281.077451,2513.339438 4260.155614,2526.917032 4261.901190,2529.619748 4257.662215,2532.434625"/>
    <poly id="108652192" type="building" color="255,230,230" fill="1" layer="-1.00" shape="4233.697774,2385.293096 4226.757232,2372.088827 4221.043603,2361.233655 4218.333391,2356.074849 4217.547586,2354.582129 4244.575685,2340.443945 4250.848118,2352.386102 4241.017210,2357.528309 4242.449606,2360.261475 4250.888184,2376.308485 4233.697774,2385.293096"/>
    <poly id="114133778" type="landuse" color="194,194,130" fill="1" layer="-3.00" shape="4897.014287,3114.309320 4892.026502,3125.599815 4890.355218,3127.601745 4885.944613,3127.839090 4883.033365,3129.383745 4883.241759,3132.560674 4885.293564,3136.056755 4888.056392,3138.187923 4891.335404,3141.652024 4894.344864,3144.143964 4892.760538,3149.214716 4897.016328,3152.408568 4898.300312,3159.107023 4894.393766,3159.943218 4891.193267,3164.310572 4884.117808,3170.993217 4878.253938,3176.776378 4870.498267,3180.650480 4855.822846,3182.991395 4844.498900,3181.940217 4834.325614,3177.921499 4821.126087,3169.430708 4831.043162,3157.466382 4834.123704,3151.711224 4837.709833,3145.008208 4839.548560,3140.865483 4837.505833,3135.577713 4826.284008,3129.883892 4809.050383,3125.103505 4799.741971,3119.204064 4797.095827,3118.338393 4768.030317,3108.826121 4762.085528,3105.620795 4714.463608,3079.957825 4723.244403,3066.164706 4727.373398,3069.573149 4741.171294,3077.180186 4761.422998,3087.712248 4777.518733,3093.267680 4785.286695,3095.212615 4792.218791,3096.945691 4821.336401,3099.624679 4861.077744,3105.932521 4897.014287,3114.309320"/>
    <poly id="116078363" type="amenity" color="237,199,199" fill="1" layer="-1.00" shape="4809.310038,2563.699396 4824.993697,2525.013196 4840.949737,2501.586374 4923.481289,2564.729760 4891.811023,2604.800219 4880.439922,2611.628142 4809.310038,2563.699396"/>
    <poly id="116448105" type="tourism" color="207,245,201" fill="1" layer="-2.00" shape="4841.342608,1920.339918 4851.454129,1931.537344 4853.599503,1929.500813 4856.385871,1932.243366 4892.278547,1901.921523 4879.772177,1887.470531 4874.281730,1881.126469 4841.473326,1909.287287 4844.604558,1917.228336 4841.342608,1920.339918"/>
    <poly id="116509361" type="landuse" color="194,194,130" fill="1" layer="-3.00" shape="4924.362275,2910.070429 4924.697208,2903.374300 4926.728455,2895.365488 4929.200857,2889.826532 4933.435217,2883.351508 4926.187136,2884.497262 4920.917693,2885.524713 4918.990335,2887.611191 4917.340975,2890.458198 4917.399024,2895.096697 4919.510736,2902.496854 4922.388778,2907.707257 4924.362275,2910.070429"/>
    <poly id="116509363" type="landuse" color="194,194,130" fill="1" layer="-3.00" shape="4892.094785,2898.482174 4895.422862,2900.342698 4898.241706,2900.870110 4903.143292,2899.918982 4906.369399,2897.598370 4908.184638,2894.958452 4909.168535,2889.602922 4908.165548,2885.923722 4906.087767,2883.040299 4903.068549,2880.982559 4898.571522,2880.053787 4894.071733,2881.161356 4890.000617,2884.794742 4888.445034,2888.829919 4888.455260,2892.167791 4889.828705,2895.870715 4892.094785,2898.482174"/>
    <poly id="119307734" type="leisure" color="207,245,201" fill="1" layer="-2.00" shape="5864.879485,1818.149346 5874.319828,1818.049882 5876.265399,1815.017533 5893.127488,1808.817757 5869.484599,1793.272649 5860.074230,1800.470382 5864.879485,1818.149346"/>
    <poly id="119440324" type="parking" color="184,184,179" fill="1" layer="-1.00" shape="4128.443560,2476.277529 4142.154212,2467.940076 4148.504221,2461.264295 4149.271314,2456.715431 4147.579005,2452.320021 4143.233546,2444.945277 4119.142346,2464.604046 4128.443560,2476.277529"/>
    <poly id="119440326" type="leisure" color="207,245,201" fill="1" layer="-2.00" shape="4052.709399,2443.412261 4063.104091,2453.399011 4073.796167,2444.383862 4065.107925,2433.206252 4052.709399,2443.412261"/>
    <poly id="119440327" type="parking" color="184,184,179" fill="1" layer="-1.00" shape="3942.069654,2340.694845 3959.757666,2327.545739 3957.072926,2324.166743 3963.749139,2319.551833 3969.563540,2315.337867 3965.544909,2307.932430 3967.238861,2306.530472 3969.177389,2309.929049 3991.137989,2299.494284 3984.710344,2285.119631 3956.057109,2299.546638 3945.395874,2307.348352 3950.379161,2313.749269 3931.267244,2329.283611 3937.170150,2337.752298 3939.115145,2336.343742 3942.069654,2340.694845"/>
    <poly id="119440328" type="amenity" color="237,199,199" fill="1" layer="-1.00" shape="4138.405208,2325.387750 4145.381911,2336.232000 4149.529134,2345.893016 4188.215009,2397.166265 4176.441997,2411.016420 4166.790879,2416.621410 4158.279715,2422.318953 4146.441857,2437.684180 4123.908623,2408.943335 4130.687354,2403.179857 4136.198760,2399.652779 4135.221146,2398.031570 4113.657466,2370.878801 4111.909179,2368.610162 4100.065429,2352.596969 4138.405208,2325.387750"/>
    <poly id="119440330" type="parking" color="184,184,179" fill="1" layer="-1.00" shape="4063.104091,2453.399011 4073.796167,2444.383862 4102.573592,2483.442650 4095.116657,2487.287817 4093.705118,2488.014701 4085.437895,2478.784412 4084.129620,2477.327661 4079.192533,2481.195816 4075.626861,2476.949681 4080.066192,2472.994426 4063.104091,2453.399011"/>
    <poly id="119440332" type="parking" color="184,184,179" fill="1" layer="-1.00" shape="4097.062793,2500.567186 4121.813102,2489.559111 4133.726542,2485.608335 4145.389699,2500.869673 4139.271202,2505.725663 4136.406590,2507.458675 4131.043830,2511.593859 4124.817226,2504.068135 4115.825777,2511.402915 4111.018698,2505.319922 4105.311955,2509.909237 4097.062793,2500.567186"/>
    <poly id="120285158" type="leisure" color="207,245,201" fill="1" layer="-2.00" shape="3319.285964,2457.675869 3365.172420,2425.977717 3418.683150,2506.453322 3372.514559,2537.490816 3319.285964,2457.675869"/>
    <poly id="120285158#1" type="sport" color="79,230,125" fill="1" layer="-2.00" shape="3319.285964,2457.675869 3365.172420,2425.977717 3418.683150,2506.453322 3372.514559,2537.490816 3319.285964,2457.675869"/>
    <poly id="120285159" type="leisure" color="207,245,201" fill="1" layer="-2.00" shape="3409.918939,2450.591698 3486.375920,2508.876636 3518.959414,2465.957823 3442.756387,2407.253995 3409.918939,2450.591698"/>
    <poly id="120285159#1" type="sport" color="79,230,125" fill="1" layer="-2.00" shape="3409.918939,2450.591698 3486.375920,2508.876636 3518.959414,2465.957823 3442.756387,2407.253995 3409.918939,2450.591698"/>
    <poly id="120285160" type="leisure" color="207,245,201" fill="1" layer="-2.00" shape="3244.407720,2480.781054 3329.998043,2446.288477 3310.303980,2398.626585 3224.881861,2433.437713 3244.407720,2480.781054"/>
    <poly id="120285160#1" type="sport" color="79,230,125" fill="1" layer="-2.00" shape="3244.407720,2480.781054 3329.998043,2446.288477 3310.303980,2398.626585 3224.881861,2433.437713 3244.407720,2480.781054"/>
    <poly id="120285161" type="leisure" color="207,245,201" fill="1" layer="-2.00" shape="3365.444682,2418.036805 3390.042682,2435.715235 3419.752762,2396.053887 3395.771092,2377.402129 3365.444682,2418.036805"/>
    <poly id="120285161#1" type="sport" color="79,230,125" fill="1" layer="-2.00" shape="3365.444682,2418.036805 3390.042682,2435.715235 3419.752762,2396.053887 3395.771092,2377.402129 3365.444682,2418.036805"/>
    <poly id="120300020" type="building" color="255,230,230" fill="1" layer="-1.00" shape="4740.106034,2746.409154 4755.179040,2755.785593 4771.596397,2735.373049 4768.285764,2730.174004 4764.547391,2725.698255 4741.099265,2743.824002 4740.106034,2746.409154"/>
    <poly id="120300020#1" type="landuse" color="194,194,130" fill="1" layer="-3.00" shape="4740.106034,2746.409154 4755.179040,2755.785593 4771.596397,2735.373049 4768.285764,2730.174004 4764.547391,2725.698255 4741.099265,2743.824002 4740.106034,2746.409154"/>
    <poly id="120300024" type="landuse" color="194,194,130" fill="1" layer="-3.00" shape="4592.511211,2600.467879 4592.203196,2601.499621 4605.527566,2618.443266 4606.428601,2618.475374 4616.365421,2611.517369 4616.445931,2610.324662 4605.385366,2593.488783 4604.367227,2593.515369 4592.511211,2600.467879"/>
    <poly id="120522588" type="parking" color="184,184,179" fill="1" layer="-1.00" shape="3422.440530,1511.545019 3425.991836,1513.610184 3445.388992,1525.806735 3454.109571,1512.124306 3434.472119,1500.345757 3427.539907,1502.686981 3422.440530,1511.545019"/>
    <poly id="120789930" type="building" color="255,230,230" fill="1" layer="-1.00" shape="3286.654033,1526.917496 3309.616314,1539.041822 3324.029301,1511.745160 3323.754876,1510.072178 3305.029600,1500.606795 3304.603886,1499.549799 3300.211639,1497.095172 3295.692747,1505.459573 3291.632873,1512.966209 3292.434948,1514.002155 3286.138401,1525.362146 3286.654033,1526.917496"/>
    <poly id="120789930#1" type="shop" color="237,199,255" fill="1" layer="-1.00" shape="3286.654033,1526.917496 3309.616314,1539.041822 3324.029301,1511.745160 3323.754876,1510.072178 3305.029600,1500.606795 3304.603886,1499.549799 3300.211639,1497.095172 3295.692747,1505.459573 3291.632873,1512.966209 3292.434948,1514.002155 3286.138401,1525.362146 3286.654033,1526.917496"/>
    <poly id="120789938" type="leisure" color="207,245,201" fill="1" layer="-2.00" shape="3611.603448,1595.462484 3615.797274,1598.078367 3640.338536,1614.023750 3656.876588,1624.760682 3658.264061,1621.252514 3664.711664,1604.993062 3690.082415,1540.967837 3657.351595,1524.414077 3647.770272,1543.871538 3642.454188,1546.092092 3635.866234,1558.872440 3637.247696,1565.223142 3630.661913,1578.615439 3623.152295,1573.861288 3621.552323,1576.985600 3619.941272,1576.237932 3614.120403,1587.395822 3610.262377,1594.629828 3611.603448,1595.462484"/>
    <poly id="120789954" type="building" color="255,230,230" fill="1" layer="-1.00" shape="3324.029301,1511.745160 3344.619756,1522.596878 3361.561875,1490.348833 3320.789363,1468.790352 3312.666676,1484.226493 3304.603886,1499.549799 3305.029600,1500.606795 3323.754876,1510.072178 3324.029301,1511.745160"/>
    <poly id="120789954#1" type="shop" color="237,199,255" fill="1" layer="-1.00" shape="3324.029301,1511.745160 3344.619756,1522.596878 3361.561875,1490.348833 3320.789363,1468.790352 3312.666676,1484.226493 3304.603886,1499.549799 3305.029600,1500.606795 3323.754876,1510.072178 3324.029301,1511.745160"/>
    <poly id="120801704" type="leisure" color="207,245,201" fill="1" layer="-2.00" shape="5403.709110,1920.558853 5441.863029,1895.768102 5397.846798,1830.203468 5358.726805,1853.817887 5403.709110,1920.558853"/>
    <poly id="120801705" type="leisure" color="207,245,201" fill="1" layer="-2.00" shape="5488.394808,1882.644070 5533.351335,1853.438214 5481.017363,1771.754030 5435.390804,1800.977705 5488.394808,1882.644070"/>
    <poly id="120801705#1" type="sport" color="79,230,125" fill="1" layer="-2.00" shape="5488.394808,1882.644070 5533.351335,1853.438214 5481.017363,1771.754030 5435.390804,1800.977705 5488.394808,1882.644070"/>
    <poly id="120801707" type="leisure" color="207,245,201" fill="1" layer="-2.00" shape="5993.023895,1531.176494 5941.556375,1545.769667 5965.722953,1632.603449 6017.484884,1618.091895 5993.023895,1531.176494"/>
    <poly id="120801707#1" type="sport" color="79,230,125" fill="1" layer="-2.00" shape="5993.023895,1531.176494 5941.556375,1545.769667 5965.722953,1632.603449 6017.484884,1618.091895 5993.023895,1531.176494"/>
    <poly id="120801711" type="leisure" color="207,245,201" fill="1" layer="-2.00" shape="5997.458576,1529.926984 6022.293837,1616.743721 6067.889202,1603.971991 6043.355544,1516.913611 5997.458576,1529.926984"/>
    <poly id="120801711#1" type="sport" color="79,230,125" fill="1" layer="-2.00" shape="5997.458576,1529.926984 6022.293837,1616.743721 6067.889202,1603.971991 6043.355544,1516.913611 5997.458576,1529.926984"/>
    <poly id="120801715" type="leisure" color="207,245,201" fill="1" layer="-2.00" shape="5357.874870,1949.510513 5398.046715,1923.966028 5355.560231,1856.314661 5315.014628,1881.724517 5357.874870,1949.510513"/>
    <poly id="120801715#1" type="sport" color="79,230,125" fill="1" layer="-2.00" shape="5357.874870,1949.510513 5398.046715,1923.966028 5355.560231,1856.314661 5315.014628,1881.724517 5357.874870,1949.510513"/>
    <poly id="120801716" type="leisure" color="207,245,201" fill="1" layer="-2.00" shape="5502.056410,1409.290132 5535.313146,1445.558922 5557.313941,1425.649896 5525.237548,1387.792583 5502.056410,1409.290132"/>
    <poly id="120801716#1" type="sport" color="79,230,125" fill="1" layer="-2.00" shape="5502.056410,1409.290132 5535.313146,1445.558922 5557.313941,1425.649896 5525.237548,1387.792583 5502.056410,1409.290132"/>
    <poly id="120801718" type="leisure" color="207,245,201" fill="1" layer="-2.00" shape="5249.885511,2045.081476 5328.416889,1999.267809 5310.826121,1969.837285 5232.534555,2014.955096 5249.885511,2045.081476"/>
    <poly id="120801718#1" type="sport" color="79,230,125" fill="1" layer="-2.00" shape="5249.885511,2045.081476 5328.416889,1999.267809 5310.826121,1969.837285 5232.534555,2014.955096 5249.885511,2045.081476"/>
    <poly id="120801719" type="leisure" color="207,245,201" fill="1" layer="-2.00" shape="5515.801753,1752.347760 5574.278319,1829.233105 5611.973435,1800.416463 5552.971570,1722.910076 5515.801753,1752.347760"/>
    <poly id="120801719#1" type="sport" color="79,230,125" fill="1" layer="-2.00" shape="5515.801753,1752.347760 5574.278319,1829.233105 5611.973435,1800.416463 5552.971570,1722.910076 5515.801753,1752.347760"/>
    <poly id="120801721" type="leisure" color="207,245,201" fill="1" layer="-2.00" shape="5594.582628,1711.861868 5657.600019,1683.847179 5660.546004,1687.376040 5688.356929,1666.538183 5667.600542,1643.920314 5580.657196,1681.100382 5594.582628,1711.861868"/>
    <poly id="120801721#1" type="sport" color="79,230,125" fill="1" layer="-2.00" shape="5594.582628,1711.861868 5657.600019,1683.847179 5660.546004,1687.376040 5688.356929,1666.538183 5667.600542,1643.920314 5580.657196,1681.100382 5594.582628,1711.861868"/>
    <poly id="120878500" type="landuse" color="194,194,130" fill="1" layer="-3.00" shape="4043.638575,1584.408500 4057.818712,1561.671181 4051.138430,1557.918383 4046.815153,1558.610318 4042.191415,1578.727064 4042.331350,1580.603890 4043.638575,1584.408500"/>
    <poly id="120879747" type="leisure" color="207,245,201" fill="1" layer="-2.00" shape="4308.175466,3051.686473 4392.219688,2999.582004 4371.295229,2966.046823 4359.809692,2947.642520 4310.964578,2978.029400 4275.158555,3000.308614 4308.175466,3051.686473"/>
    <poly id="120879747#1" type="sport" color="79,230,125" fill="1" layer="-2.00" shape="4308.175466,3051.686473 4392.219688,2999.582004 4371.295229,2966.046823 4359.809692,2947.642520 4310.964578,2978.029400 4275.158555,3000.308614 4308.175466,3051.686473"/>
    <poly id="120879748" type="landuse" color="194,194,130" fill="1" layer="-3.00" shape="4355.267870,2879.128914 4366.636524,2890.125569 4376.802464,2898.093736 4401.390762,2879.346672 4375.754411,2847.626029 4355.267870,2879.128914"/>
    <poly id="120879749" type="parking" color="184,184,179" fill="1" layer="-1.00" shape="4088.877911,2887.129196 4084.067645,2881.179848 4078.431943,2872.225546 4073.929063,2863.096895 4074.533923,2849.172033 4078.841504,2847.657071 4088.362184,2860.003469 4108.340081,2883.959623 4113.195922,2889.785399 4100.866702,2899.399784 4095.132710,2895.744590 4088.877911,2887.129196"/>
    <poly id="120879753" type="leisure" color="207,245,201" fill="1" layer="-2.00" shape="4319.375130,3084.229668 4362.682342,3059.573553 4347.129655,3032.396204 4303.822273,3057.052447 4319.375130,3084.229668"/>
    <poly id="120879753#1" type="sport" color="79,230,125" fill="1" layer="-2.00" shape="4319.375130,3084.229668 4362.682342,3059.573553 4347.129655,3032.396204 4303.822273,3057.052447 4319.375130,3084.229668"/>
    <poly id="120879756" type="landuse" color="194,194,130" fill="1" layer="-3.00" shape="4500.629531,3033.878822 4582.143146,2989.799623 4569.087857,2956.681274 4554.365569,2919.322545 4564.747707,2911.273441 4557.456825,2893.682703 4543.384196,2877.993862 4522.618968,2864.149008 4497.263793,2896.557414 4457.966289,2932.668598 4456.118857,2942.608950 4462.687145,2958.972206 4500.629531,3033.878822"/>
    <poly id="121380081" type="water" color="181,209,209" fill="0" layer="-4.00" shape="3620.990575,2148.784019 3610.823207,2141.128847 3601.919407,2137.468515 3590.245236,2133.024278 3542.891448,2068.007502 3529.070428,2047.763576 3522.031379,2043.631463"/>
    <poly id="121380083" type="water" color="181,209,209" fill="0" layer="-4.00" shape="3515.800271,2054.021397 3488.493760,2179.788148"/>
    <poly id="121591828" type="leisure" color="207,245,201" fill="1" layer="-2.00" shape="5540.800299,2282.081696 5552.287034,2281.539100 5560.429515,2283.631316 5567.614232,2281.620235 5578.324959,2281.832198 5578.052495,2275.897414 5577.013375,2275.924347 5577.868049,2252.357351 5539.602832,2252.314487 5540.767022,2257.380495 5540.800299,2282.081696"/>
    <poly id="121592248" type="amenity" color="237,199,199" fill="1" layer="-1.00" shape="5280.387487,2174.186572 5277.770533,2186.817025 5276.606306,2200.834007 5276.989959,2207.811846 5278.328851,2212.339167 5289.190735,2235.557404 5294.885555,2243.087165 5297.595831,2246.677576 5362.408913,2230.618355 5376.849397,2207.555386 5363.878807,2165.731625 5348.604083,2169.299401 5345.170501,2164.192207 5340.867321,2159.997760 5335.879935,2158.480452 5325.494462,2159.517897 5317.822198,2162.376506 5310.549358,2166.103792 5303.766621,2168.816923 5294.765886,2169.429020 5289.771519,2167.911938 5286.797128,2165.708148 5284.641795,2166.020057 5280.387487,2174.186572"/>
    <poly id="121607316" type="unknown" color="51,128,255" fill="0" layer="-1.00" shape="5191.549343,2797.843046 5187.464644,2798.817161 5179.605391,2799.811532 5171.933073,2799.944268 5163.966500,2799.494932 5159.669082,2798.460595"/>
    <poly id="121607317" type="landuse" color="194,194,130" fill="1" layer="-3.00" shape="5099.491093,2709.417884 5102.355555,2705.526764 5107.222481,2702.162161 5111.159358,2701.136195 5125.846404,2713.672711 5158.076305,2744.457686 5180.750609,2764.686884 5192.986088,2773.659889 5211.089019,2786.352621 5207.814367,2789.497699 5199.679353,2792.769136 5190.585392,2794.852664 5180.258720,2796.222746 5171.808028,2796.208814 5160.158154,2795.532576 5180.679871,2765.723543 5119.106298,2724.162861 5119.677918,2723.335712 5099.491093,2709.417884"/>
    <poly id="121607320" type="unknown" color="51,128,255" fill="0" layer="-1.00" shape="5212.525010,2790.053996 5194.586863,2797.118702 5192.201071,2797.681449"/>
    <poly id="121607321" type="landuse" color="194,194,130" fill="1" layer="-3.00" shape="5114.264894,2700.610324 5119.570314,2694.519313 5136.353388,2707.424166 5153.147615,2714.053096 5162.472503,2718.161296 5172.917601,2728.048731 5160.845853,2742.282641 5176.086630,2755.728441 5188.334246,2765.435509 5199.568263,2773.733560 5214.912902,2784.739934 5216.655030,2782.769660 5220.727855,2785.901777 5218.968674,2787.215993 5214.658469,2786.226451 5212.604712,2785.066985 5192.067838,2770.011820 5177.639279,2758.547734 5159.931378,2743.074192 5132.972455,2717.214936 5119.156822,2704.644606 5114.264894,2700.610324"/>
    <poly id="121814606" type="building" color="255,230,230" fill="1" layer="-1.00" shape="3985.050201,1965.214918 4005.556381,1950.890534 3990.266072,1929.115030 3969.759840,1943.439475 3985.050201,1965.214918"/>
    <poly id="121814606#1" type="historic" color="128,255,128" fill="1" layer="-1.00" shape="3985.050201,1965.214918 4005.556381,1950.890534 3990.266072,1929.115030 3969.759840,1943.439475 3985.050201,1965.214918"/>
    <poly id="130636466" type="parking" color="184,184,179" fill="1" layer="-1.00" shape="4736.331766,2161.365018 4750.326157,2157.150037 4750.283237,2155.504341 4755.318047,2154.282577 4767.646661,2157.911202 4770.049580,2157.192042 4767.015760,2148.169165 4766.367239,2146.850821 4760.070663,2148.394784 4758.234099,2143.802667 4756.927002,2144.259585 4749.934141,2146.400329 4737.803487,2112.100218 4717.416074,2120.320853 4725.306061,2135.181171 4732.150105,2157.301416 4735.232676,2157.221012 4736.331766,2161.365018"/>
    <poly id="132650747" type="parking" color="184,184,179" fill="1" layer="-1.00" shape="4582.420752,1961.766228 4578.886704,1964.339860 4592.561580,1983.688961 4593.895983,1984.811343 4595.986798,1986.570478 4599.626926,1983.248570 4606.958191,1992.726652 4608.284802,1991.679449 4619.008139,1983.254448 4623.761291,1979.525181 4612.042456,1963.719002 4608.855397,1965.415638 4598.648464,1950.315535 4582.420752,1961.766228"/>
    <poly id="132651703" type="parking" color="184,184,179" fill="1" layer="-1.00" shape="4598.648464,1950.315535 4608.881321,1942.615459 4614.968978,1937.872159 4621.109767,1944.521666 4622.703471,1943.011283 4647.533874,1919.419043 4633.262264,1905.548796 4625.846155,1911.806656 4614.577821,1899.093178 4610.329662,1902.920539 4580.831609,1867.761153 4566.996984,1856.472291 4539.699396,1878.593815 4536.822079,1880.927778 4570.996980,1919.314060 4570.357567,1923.425545 4558.719600,1934.511662 4576.032632,1955.000826 4582.420752,1961.766228 4598.648464,1950.315535"/>
    <poly id="136510824" type="amenity" color="237,199,199" fill="1" layer="-1.00" shape="4400.520190,1983.298864 4399.746860,1979.880793 4401.163196,1976.127290 4419.505145,1960.670591 4422.751167,1962.032262 4432.975979,1966.315976 4455.606214,1975.805659 4504.922263,2000.966193 4536.639104,2017.139910 4553.702237,2026.730921 4565.688287,2036.999802 4594.022464,2065.568814 4590.778792,2068.034715 4552.466243,2050.219220 4545.398106,2049.213225 4532.223094,2048.733954 4521.568714,2047.231933 4509.446845,2042.185332 4402.681421,1986.680646 4400.520190,1983.298864"/>
    <poly id="139732084" type="natural" color="140,196,107" fill="1" layer="-4.00" shape="3208.896308,2019.268416 3240.188106,2017.831037 3335.645604,1999.135323 3427.137903,1974.815314 3401.615780,1948.359319 3375.194669,1923.818759 3350.802763,1903.987317 3317.463570,1888.675798 3281.669161,1871.047984 3228.945874,1844.820409 3179.854748,1811.843417 3133.611027,1777.823646 3117.941609,1763.003991 3024.448322,1711.672249 2970.838233,1670.226252 2925.264143,1625.730909 2895.419276,1616.516421 2807.035683,1595.998373 2734.557499,1581.247578 2582.741490,1545.276635 2465.817752,1528.847769 2266.762591,1494.139059 2209.499127,1477.088711 2127.936795,1462.109244 2074.999801,1485.727129 2046.125632,1496.309507 2034.500070,1503.250700 2097.503453,1542.946431 2136.514757,1566.322586 2174.489446,1586.688807 2219.471071,1610.975113 2264.384647,1634.818510 2383.093297,1685.946021 2478.353538,1723.343725 2533.528625,1741.798692 2545.472864,1745.298743 2553.483483,1725.735995 2704.319179,1606.761787 2775.881523,1635.445504 2622.098286,1770.697038 2694.897958,1791.346237 2798.041340,1825.347438 2872.068863,1852.108870 2914.926384,1870.459604 2933.507176,1873.684950 2947.184234,1877.017711 3023.019977,1910.732528 3099.813673,1957.508812 3186.795662,2010.371042 3208.896308,2019.268416"/>
    <poly id="141039430" type="landuse" color="194,194,130" fill="1" layer="-3.00" shape="3862.072442,2075.396558 3867.350666,2076.537621 3872.974108,2075.143751 3882.002690,2068.141411 3885.846813,2064.101478 3892.401971,2055.394856 3906.695823,2018.188667 3920.287868,1984.283469 3927.761041,1962.945693 3924.874522,1965.981269 3906.273941,1986.954554 3896.721818,1999.278259 3889.712898,2010.110950 3882.668536,2023.314678 3874.831846,2039.832868 3867.036298,2059.777173 3862.970283,2072.112715 3862.072442,2075.396558"/>
    <poly id="141039431" type="landuse" color="194,194,130" fill="1" layer="-3.00" shape="3898.158526,2322.574911 3904.009811,2323.756595 3909.966105,2323.355467 3915.609852,2321.415866 3920.539486,2318.059602 3924.412150,2313.518216 3926.957639,2308.132612 3927.983044,2302.263920 3927.436681,2296.336329 3925.336317,2290.761081 3921.845879,2285.934454 3917.204553,2282.195117 3911.740147,2279.801524 3906.469437,2278.938407 3901.148309,2279.345121 3896.075773,2280.980435 3891.529039,2283.770310 3887.769037,2287.552113 3885.006121,2292.097778 3883.394855,2297.180700 3883.024697,2302.486969 3883.923217,2307.737680 3886.033420,2312.622768 3889.236714,2316.878294 3893.359303,2320.264023 3898.158526,2322.574911"/>
    <poly id="141040276" type="forest" color="140,196,107" fill="1" layer="-4.00" shape="3794.803511,2144.838722 3805.464486,2149.510317 3820.948741,2177.333394 3839.102794,2217.003652 3854.217679,2247.518173 3859.012743,2257.907492 3849.229300,2262.459470 3843.154369,2260.471430 3833.358035,2248.054776 3806.789427,2203.676182 3790.898153,2172.314256 3782.824444,2159.863566 3780.915756,2152.825668 3783.150309,2147.826484 3787.419786,2146.434702 3794.803511,2144.838722"/>
    <poly id="141040622" type="landuse" color="194,194,130" fill="1" layer="-3.00" shape="3633.726363,2365.819569 3691.585522,2427.623274 3716.840056,2410.324211 3741.085653,2391.538492 3750.413666,2382.680896 3747.426275,2359.025028 3732.938812,2327.437226 3711.077638,2305.523664 3656.022573,2269.450018 3631.647244,2259.698183 3609.618694,2259.042445 3574.714821,2307.218048 3633.726363,2365.819569"/>
    <poly id="141041344" type="unknown" color="51,128,255" fill="0" layer="-1.00" shape="3982.974202,1919.325184 3965.742609,1932.106094 3948.888199,1943.831214 3941.399404,1949.947356 3934.880629,1955.793260 3930.519996,1962.762030 3925.635999,1977.978664"/>
    <poly id="144103870" type="landuse" color="194,194,130" fill="1" layer="-3.00" shape="5251.357641,2912.766844 5236.825939,2902.952102 5232.658406,2900.467810 5213.949541,2887.801897 5215.746656,2884.995660 5225.682885,2869.148311 5263.453754,2895.450297 5251.357641,2912.766844"/>