<?xml version="1.0" encoding="UTF-8"?>

<additional xmlns:xsi="http://www.w3.org/2001/XMLSchema-instance" xsi:noNamespaceSchemaLocation="http://sumo.dlr.de/xsd/additional_file.xsd">
    <e1Detector id="A257_0" lane="4476027#1_1" pos="43.68" freq="3600.00" file="../Other/Canterbury.out.xml"/>
    <e1Detector id="A257_1" lane="4476027#1_2" pos="43.60" freq="3600.00" file="../Other/Canterbury.out.xml"/>
    <e1Detector id="A257_2" lane="9644097#2_2" pos="75.12" freq="3600.00" file="../Other/Canterbury.out.xml"/>
    <e1Detector id="A257_3" lane="9644097#2_1" pos="75.15" freq="3600.00" file="../Other/Canterbury.out.xml"/>
    <e1Detector id="A290_0" lane="27941893#1_0" pos="170.47" freq="3600.00"  file="../Other/Canterbury.out.xml"/>
    <e1Detector id="A290_1" lane="27941893#1_1" pos="170.11" freq="3600.00"  file="../Other/Canterbury.out.xml"/>
    <e1Detector id="A290_2" lane="27941892_1" pos="37.98" freq="3600.00"  file="../Other/Canterbury.out.xml" />
    <e1Detector id="A290_3" lane="27941892_0" pos="38.18" freq="3600.00"  file="../Other/Canterbury.out.xml" />
    <e1Detector id="A290_4" lane="-156465723#0_1" pos="43.78" freq="3600.00"  file="../Other/Canterbury.out.xml" />
    <e1Detector id="A290_5" lane="23412227#1_1" pos="21.06" freq="3600.00"  file="../Other/Canterbury.out.xml" />
    <e1Detector id="BroadStreet0" lane="23433590#2_1" pos="29.01" freq="3600.00"  file="../Other/Canterbury.out.xml" />
    <e1Detector id="BroadStreet1" lane="-23433590#2_1" pos="15.56" freq="3600.00"  file="../Other/Canterbury.out.xml" />
    <e1Detector id="UpperBridgeStreet0" lane="4476020#1_1" pos="123.43" freq="3600.00"  file="../Other/Canterbury.out.xml" />
    <e1Detector id="UpperBridgeStreet1" lane="4476020#1_2" pos="123.13" freq="3600.00"  file="../Other/Canterbury.out.xml" />
    <e1Detector id="UpperBridgeStreet3" lane="4371101#0_1" pos="19.88" freq="3600.00"  file="../Other/Canterbury.out.xml" />
    <e1Detector id="UpperBrigdeStreet4" lane="4371101#0_2" pos="20.53" freq="3600.00"  file="../Other/Canterbury.out.xml" />
    <!--<e1Detector id="e1Detector_9644097#2_2_15" lane="9644097#2_2" pos="75.12" freq="3600.00" file="../Other/Canterbury.out.xml.add.xml"/>-->
</additional>
