<?xml version="1.0" encoding="UTF-8"?>

<routes xmlns:xsi="http://www.w3.org/2001/XMLSchema-instance" xsi:noNamespaceSchemaLocation="http://sumo.dlr.de/xsd/routes_file.xsd">
    <route edges="71093886#0 71093886#1 71093886#2 130426571 130426572#0 130426572#1 146918207#0 146918207#2 72150656#0 72150656#1 72150656#2 72150656#3 72150673#0 72150673#1 72150673#2 72150647 146918203#0 146918203#1 146918203#2 72150679#0 72150679#1 4381635 2913476#1 2913476#2 2913476#3 2913476#4 2913476#5 2913476#6 146918198#0 146918198#1 178155133#1 178155133#2 178155133#3 178155133#4 113224979#0 113224979#1 113225006 -147949993#3 -147949993#2 -147949993#1 147949989#0 147949989#1 147949989#2 30890498#0 30890498#1 30890498#2 30890498#3 30890498#4 30890498#5 30890498#7 30890498#8 30890498#9 30890498#10 30890498#12 30890498#13 30890498#15 30890498#16 30891752#0 30891752#1 30891752#2 30891751#0 30891751#1 30891751#2 30891751#3 30891751#4 30891751#5 30891751#6 30891751#9 -105135740#6 -105135740#4 -105135740#2 -105135740#1 105135736#0 105135736#1 105135737#0 105135737#1 105135737#2 105135737#4 105135737#5 105135737#6 23418626#0 23418626#1 607951330#0 607951330#1 607951330#2 607951330#3 607951330#4 607951330#5 607951330#6 147963756#0 147963756#1 147963756#2 30722758#0 30722758#1 30722758#2 30722758#3 30722758#4 30722755#0 30722755#2 658764973#0 658764973#1 658764973#2 658764973#3 658764973#4 30722753#0 30722753#1 30722753#2 30722753#4 30722753#6 607951334#0 607951334#1 589090018#0 589090018#2 589090018#3 589090018#5 589090018#6 589090018#7" color="red" id="cantIn">	
		<stop busStop="cantOut1" until="10.0"/>
		<stop busStop="cantOut2" until="10.0"/>
		<stop busStop="cantOut3" until="10.0"/>
		<stop busStop="cantOut4" until="10.0"/>
		<stop busStop="cantOut5" until="10.0"/>
		<stop busStop="cantOut6" until="10.0"/>
		<stop busStop="cantOut7" until="10.0"/>
		<stop busStop="cantOut8" until="10.0"/>
		<!--<stop busStop="cantOut9" until="10.0"/>-->
		<stop busStop="cantOut10" until="10.0"/>
		<stop busStop="cantOut11" until="10.0"/>
		
	</route>
    <route edges="-589090018#7 -589090018#6 -589090018#5 -589090018#4 -589090018#2 -589090018#1 -607951334#1 -607951334#0 -148182124 -30722753#4 -30722753#2 -30722753#1 -30722753#0 -658764973#4 -658764973#3 -658764973#2 -658764973#1 -658764973#0 30722752#0 30722752#1 -30722758#4 -30722758#3 -30722758#2 -30722758#1 -30722758#0 -147963756#2 -147963756#1 -147963756#0 147963752#0 147963752#1 147963752#3 147963752#4 147963752#5 147963752#6 147963752#7 147963752#8 147963752#9 607951329#1 607951329#2 607951329#3 607951329#4 607951329#5 607951329#6 147963754#2 147963754#3 147963754#4 147963754#7 147963754#8 147963754#9 147963754#11 105135738#0 105135738#1 105135740#0 105135740#2 105135740#4 105135740#5 -30891751#9 -30891751#6 -30891751#5 -30891751#4 -30891751#3 -30891751#2 -30891751#1 -30891751#0 -30891752#2 148181790#0 148181790#1 -30890498#15 -30890498#14 -30890498#12 -30890498#10 -30890498#9 -30890498#8 -30890498#7 -30890498#5 -30890498#4 -30890498#3 -30890498#2 -30890498#1 -30890498#0 -147949989#2 -147949989#1 -147949989#0 147949993#1 147949993#2 147949993#3 113224947 178156589 113225008#0 113225008#1 113225008#2 113224936#1 113224936#2 113224936#3 113224936#4 178155131#1 2913476#8 2913476#9 2913476#10 146918195 -72150679#1 -72150679#0 -146918203#2 -146918203#1 -146918203#0 -72150647 -72150673#2 -72150673#1 -72150673#0 -72150656#3 -72150656#2 -72150656#1 -72150656#0 -146918207#2 -146918207#0 -130426572#1 -130426572#0 -130426571 -71093886#2 -71093886#1 -71093886#0" color="red" id="cantOut">
		
		<stop busStop="cantIn1" until="10.0"/>
		<stop busStop="cantIn2" until="10.0"/>
		<stop busStop="cantIn3" until="10.0"/>
		<stop busStop="cantIn4" until="10.0"/>
		<stop busStop="cantIn5" until="10.0"/>
		<stop busStop="cantIn6" until="10.0"/>
		<stop busStop="cantIn7" until="10.0"/>
		<stop busStop="cantIn8" until="10.0"/>
		<stop busStop="cantIn9" until="10.0"/>
		<stop busStop="cantIn10" until="10.0"/>
		<stop busStop="cantIn11" until="10.0"/>
	</route>
	
    <route edges="-589094659#1 -589094659#0 -137723374#10 -137723374#9 -137723374#7 -137723374#6 -137723374#5 -137723374#3 -137723374#2 -137723374#1 -137723374#0 -137723373#0 -44612997#6 -44612997#5 -44612997#4 -44612997#2 -44612997#1 -589094658 -50642676#1 -30891761#6 -30891761#5 -30891761#2 -30891761#1 -30891761#0 -148181789 30891752#0 30891752#1 148181790#0 148181790#1 -30890498#15 2913478#0 2913478#1 2913478#2 2913478#4 2913478#5 2913478#6 2913478#8 2913478#9 2913478#11 2913478#12 196481160#1 30890527 -179318680 -147949990 -148180282 -77726727#2 -77726727#1 -77726727#0 -177960922 -132194815 132194816#0 132194816#1 17080023#3 17080023#4 17080023#5 105180654#0 105180654#1 8149137#3 8149137#4 8149137#5 4685070 164589054#0 164589054#1 164589054#3 164589054#4 167444158#0 167444158#1 167444158#2 167444158#4 167444158#5 167444158#6 167444158#7 167444158#8 167444158#9 4685003#0 4685003#1 4685003#2 4685003#3 4685003#4 4684942#1 760404398#0 4684944 4684946#0 4684946#1" color="green" id="minIn">		
        <stop busStop="minIn9" until="10.0"/>		
        <stop busStop="minIn8" until="10.0"/>		
		<stop busStop="minIn7" until="10.0"/>		
        <stop busStop="minIn6" until="10.0"/>		
        <stop busStop="minIn5" until="10.0"/>		
		<stop busStop="minIn4" until="10.0"/>
		<stop busStop="minIn3" until="10.0"/> 
        <stop busStop="minIn2" until="10.0"/> 
        <stop busStop="minIn1" until="10.0"/>
	</route>
	
    <route edges="-4684946#1 -4684946#0 -4684944 -760404398#0 -4684942#1 -4685003#4 -4685003#3 -4685003#2 -4685003#1 -4685003#0 -167444158#9 -167444158#8 -167444158#7 -167444158#6 -167444158#5 -167444158#4 -167444158#2 -167444158#1 -167444158#0 -164589054#4 -164589054#3 -164589054#1 -164589054#0 164589055 8149137#7 8149137#8 8149137#1 148180279#0 148180279#1 148180279#2 148180279#3 17080023#1 132194817#0 132194817#1 132194815 177960922 77726727#0 77726727#1 77726727#2 148180282 147949990 179318680 -30890527 -196481160#1 -196481160#0 -2913478#11 -2913478#9 -2913478#8 -2913478#6 -2913478#5 -2913478#4 -2913478#2 -2913478#1 -2913478#0 30890498#15 30890498#16 148181789 30891761#0 30891761#1 30891761#2 30891761#4 30891761#6 50642676#1 589094658 44612997#1 44612997#2 44612997#4 44612997#5 44612997#6 44612997#7 137723373#1 137723374#1 137723374#2 137723374#3 137723374#5 137723374#6 137723374#7 137723374#9 137723374#10 589094659#0 589094659#1" color="green" id="minOut">
		<stop busStop="minOut9" until="10.0"/> 
        <stop busStop="minOut8" until="10.0"/> 
        <stop busStop="minOut7" until="10.0"/>
		<stop busStop="minOut6" until="10.0"/> 
        <stop busStop="minOut5" until="10.0"/> 
        <stop busStop="minOut4" until="10.0"/>
		<stop busStop="minOut3" until="10.0"/> 
        <stop busStop="minOut2" until="10.0"/> 
        <stop busStop="minOut1" until="10.0"/>
	</route>
	
	<flow id="minIn" type="bus" route="minIn" begin="0" end="4135.0" period="100" line="minIn"/>
	<flow id="minOut" type="bus" route="minOut" begin="0" end="4135.0" period="100" line="minOut"/>
	<flow id="cantIn" type="bus" route="cantIn" begin="0" end="4135.0" period="100" line="cantIn"/>
	<flow id="cantOut" type="bus" route="cantOut" begin="0" end="4135.0" period="100" line="cantOut"/>
</routes>
