<?xml version="1.0" encoding="UTF-8"?>
<!-- generated on 2020-07-21 10:10:20.675106 by runner.py v1_6_0+1152-f241c9e80f
  options: 
-->
<routes xmlns:xsi="http://www.w3.org/2001/XMLSchema-instance" xsi:noNamespaceSchemaLocation="http://sumo.dlr.de/xsd/routes_file.xsd">
    <vType id="bus" vClass="bus"/>
    <vType id="tram" vClass="tram"/>
    <vType id="train" vClass="rail"/>
    <vType id="subway" vClass="rail_urban"/>
    <vType id="light_rail" vClass="rail_urban"/>
    <vType id="monorail" vClass="rail"/>
    <vType id="trolleybus" vClass="bus"/>
    <vType id="aerialway" vClass="bus"/>
    <vType id="ferry" vClass="ship"/>
	
    <route id="train_Southeastern:_London_Vic_-_Ramsgate:0" edges="197265770#0 197265770#1 30852055#0 30852055#1 30852055#2 30852055#3 30852055#4 30307302 30307302.48 4594092 4478806 4478806.104 4478806.1755 4478806.1909 30725167 30725167.251 30725166 30693107#0 30693107#1" >
        <stop busStop="busStop_30307302_0_14" duration="30.00" until="31.0"/> <!-- Birchington-on-Sea -->
        <stop busStop="29045443" duration="30.00" until="153.0"/> <!-- Westgate-on-Sea -->
        <stop busStop="334139103" duration="30.00" until="376.0"/>  <!--Margate 339821475--> 
    </route>
    <route id="train_Southeastern:_Ramsgate_-_London_Vic:0" edges="311074729 311074716#1 311074716#2 368956793#0 368956793#1 368956793#1.1896 368956793#1.2050 368956793#1.3702 311074736 476429186 476429186.824 476429186.873 310977210 310977200#1 310977200#2 310977200#3 310977200#4 310977201 310977220#1" >
        <stop busStop="-3166205671" duration="30.00" until="76.0"/> <!--Margate 3166212876--> 
        <stop busStop="3166212698" duration="30.00" until="297.0"/> <!-- Westgate-on-Sea -->
        <stop busStop="busStop_476429186.824_0_15" duration="30.00" until="440.0"/> <!-- Birchington-on-Sea -->
    </route>
    <flow id="train_Southeastern:_London_Vic_-_Ramsgate:0" type="train" route="train_Southeastern:_London_Vic_-_Ramsgate:0" begin="441.0" end="4041.0" period="600" line="Southeastern:_London_Vic_-_Ramsgate:0" >
        <param key="name" value="Southeastern: London Vic - Ramsgate"/>
        <param key="completeness" value="0.18"/>
    </flow>
    <flow id="train_Southeastern:_Ramsgate_-_London_Vic:0" type="train" route="train_Southeastern:_Ramsgate_-_London_Vic:0" begin="535.0" end="4135.0" period="600" line="Southeastern:_Ramsgate_-_London_Vic:0" >
        <param key="name" value="Southeastern: Ramsgate - London Vic"/>
        <param key="completeness" value="0.18"/>
    </flow>
</routes>
