<?xml version="1.0" encoding="UTF-8"?>

<!-- generated on 07/21/20 09:55:54 by Eclipse SUMO netconvert Version 1.6.0
<configuration xmlns:xsi="http://www.w3.org/2001/XMLSchema-instance" xsi:noNamespaceSchemaLocation="http://sumo.dlr.de/xsd/netconvertConfiguration.xsd">

    <input>
        <osm-files value="Thanet.osm"/>
    </input>

    <output>
        <human-readable-time value="true"/>
        <output-file value="Thanet.net.xml"/>
        <ptstop-output value="Thanet.add.xml"/>
        <ptline-output value="ptlines.xml"/>
        <parking-output value="parking.add.xml"/>
    </output>

    <projection>
        <proj.utm value="true"/>
    </projection>

    <processing>
        <geometry.remove value="true"/>
        <roundabouts.guess value="true"/>
        <lefthand value="true"/>
    </processing>

    <tls_building>
        <tls.discard-simple value="true"/>
        <tls.join value="true"/>
        <tls.guess-signals value="true"/>
        <tls.default-type value="actuated"/>
    </tls_building>

    <ramp_guessing>
        <ramps.guess value="true"/>
    </ramp_guessing>

    <junctions>
        <junctions.join value="true"/>
    </junctions>

    <pedestrian>
        <sidewalks.guess value="true"/>
        <crossings.guess value="true"/>
    </pedestrian>

    <railway>
        <railway.topology.repair value="true"/>
        <railway.topology.repair.stop-turn value="true"/>
    </railway>

    <formats>
        <osm.stop-output.length value="20"/>
    </formats>

    <report>
        <aggregate-warnings value="5"/>
        <ignore-errors value="true"/>
    </report>

</configuration>
-->

<additional xmlns:xsi="http://www.w3.org/2001/XMLSchema-instance" xsi:noNamespaceSchemaLocation="http://sumo.dlr.de/xsd/additional_file.xsd">
    <parkingArea id="589579140" lane="589579140_1" startPos="5" endPos="-5" roadsideCapacity="12"/>
</additional>
