<?xml version="1.0" encoding="UTF-8"?>

<!-- generated on 07/21/20 09:58:33 by Eclipse SUMO polyconvert Version 1.6.0
<configuration xmlns:xsi="http://www.w3.org/2001/XMLSchema-instance" xsi:noNamespaceSchemaLocation="http://sumo.dlr.de/xsd/polyconvertConfiguration.xsd">

    <input>
        <net-file value="Thanet.net.xml"/>
        <osm-files value="Thanet.osm"/>
        <type-file value="type.poly.xml"/>
    </input>

    <output>
        <output-file value="Thanet.poly.xml"/>
    </output>

    <processing>
        <poi-layer-offset value="5"/>
    </processing>

</configuration>
-->

<additional xmlns:xsi="http://www.w3.org/2001/XMLSchema-instance" xsi:noNamespaceSchemaLocation="http://sumo.dlr.de/xsd/additional_file.xsd">
    <location netOffset="-373122.31,-5685804.47" convBoundary="-14844.75,-1532.10,18666.84,8989.11" origBoundary="0.964463,51.294743,1.445824,51.393782" projParameter="+proj=utm +zone=31 +ellps=WGS84 +datum=WGS84 +units=m +no_defs"/>

    <poly id="103965971" type="building" color="255,230,230" fill="1" layer="-1.00" shape="14060.751915,3646.567140 14066.981339,3661.415604 14116.289350,3704.917911 14110.180587,3711.939434 14095.732835,3699.441827 14084.026195,3699.700297 14073.376131,3688.487334 14079.784801,3682.427062 14061.865603,3663.553416 14055.636166,3648.704958 14060.751915,3646.567140"/>
    <poly id="103966139" type="parking" color="184,184,179" fill="1" layer="-1.00" shape="14107.669630,3713.396675 14056.972165,3723.394238 14049.793420,3681.020041 14056.135499,3664.058230 14060.839469,3665.044642 14070.616536,3704.557850 14095.050976,3700.747438 14106.779678,3708.432103 14107.669630,3713.396675"/>
    <poly id="104676063" type="water" color="181,209,209" fill="0" layer="-4.00" shape="3084.692970,1596.958800 3102.410827,1631.956072 3117.934756,1660.998283 3148.860410,1683.525978 3165.571224,1691.343900 3185.539129,1696.924550 3207.171274,1702.142348 3230.661154,1704.333440 3259.485334,1706.295500 3286.132677,1706.452253 3317.687940,1705.466888 3349.472963,1702.161889 3375.214215,1700.594170 3400.363581,1699.630573 3419.394221,1697.590978 3435.698226,1693.202885 3444.857924,1691.168111 3453.898315,1687.656433 3463.512419,1683.941772 3470.610879,1679.976324 3485.938119,1672.374218 3500.139935,1664.354268 3511.041085,1658.795048 3516.830696,1657.498191 3522.792627,1656.697867 3531.410446,1658.492653 3539.842968,1665.031735 3543.841831,1675.037946 3545.542165,1687.725426 3543.628680,1698.274834 3540.366788,1707.833156 3535.365394,1720.415306 3528.215052,1735.230076 3520.091246,1749.856949 3506.270752,1766.735325 3487.465247,1783.578305 3466.453911,1797.693034 3444.776781,1811.078468"/>
    <poly id="104676076" type="water" color="181,209,209" fill="0" layer="-4.00" shape="3722.374052,2089.716791 3723.890860,2109.562954 3721.775468,2135.749622 3714.887613,2175.336109 3707.110306,2206.933103 3692.135342,2242.108242 3669.793298,2280.476261 3643.844646,2314.369565 3626.157217,2339.930441 3619.665867,2353.427450 3618.022990,2378.946349 3623.344813,2390.077836 3627.783698,2396.679957 3632.113784,2402.817399 3660.192281,2427.797640 3686.181171,2446.486395 3705.993656,2456.756869 3728.127594,2462.420814 3751.619581,2465.437450 3774.699749,2466.984313 3787.628873,2467.262586 3795.878745,2466.285048 3803.904641,2464.979129 3814.371341,2461.700721 3825.303449,2457.487646 3831.920667,2453.834660 3846.108689,2445.604529 3852.476237,2441.712803 3862.001912,2433.505945 3868.412728,2425.329572 3874.443140,2416.116492 3883.014085,2395.749358 3887.687320,2384.009910 3889.563302,2376.231987 3893.736416,2344.866667 3896.709854,2328.817753 3902.615993,2307.190758 3906.932405,2297.707432 3914.216712,2288.163830 3920.937221,2281.259609 3925.265030,2276.593712 3929.832786,2275.237682 3935.318507,2273.214249 3942.699062,2270.855961 3957.805003,2266.565049 3985.109048,2264.016971 3998.392640,2263.363790 4030.020419,2264.094391 4063.747066,2266.310178"/>
    <poly id="113224942" type="landuse" color="194,194,130" fill="1" layer="-3.00" shape="7143.128859,5549.937527 7144.049665,5552.074392 7146.248657,5553.469213 7177.433640,5568.336731 7179.612463,5568.574926 7182.471059,5567.206154 7267.528944,5514.967351 7266.520958,5502.863546 7256.698343,5497.463885 7253.156674,5494.654087 7252.099609,5492.943187 7144.704429,5499.799822 7141.994950,5501.587907 7143.128859,5549.937527"/>
    <poly id="113224954" type="building" color="255,230,230" fill="1" layer="-1.00" shape="7284.011077,4375.205834 7467.120832,4524.494113 7626.912513,4327.512607 7584.218168,4292.928607 7598.875383,4274.951541 7516.572178,4207.904027 7514.542369,4210.488197 7503.336448,4201.738003 7501.540804,4204.205445 7512.859905,4212.730469 7506.886950,4219.801576 7448.437608,4172.402535 7284.011077,4375.205834"/>
    <poly id="113224964" type="landuse" color="194,194,130" fill="1" layer="-3.00" shape="7593.403316,4401.615604 7667.355116,4488.919362 7670.583688,4490.535158 7673.915703,4490.613150 7690.967223,4487.177785 7692.633533,4485.737020 7693.030907,4483.658308 7692.805272,4480.259012 7691.605012,4476.593184 7618.214020,4378.684017 7617.257145,4378.283571 7613.356046,4377.707105 7611.348963,4377.086412 7610.094387,4376.169997 7608.694880,4375.312597 7606.336187,4375.745963 7604.981604,4376.812317 7593.283113,4391.994400 7592.578137,4394.325078 7592.413326,4397.410836 7592.748426,4399.528080 7593.403316,4401.615604"/>
    <poly id="113224969" type="landuse" color="194,194,130" fill="1" layer="-3.00" shape="7629.210501,4349.544104 7631.790935,4355.325017 7642.344352,4369.275431 7725.223430,4479.702850 7730.751303,4480.730992 7738.663235,4478.532610 7743.488177,4474.514826 7744.628689,4467.556715 7721.830184,4421.159043 7648.608052,4342.426758 7640.884037,4340.148225 7634.658805,4340.293562 7631.523807,4342.391692 7629.428613,4345.756164 7629.210501,4349.544104"/>
    <poly id="113224972" type="landuse" color="194,194,130" fill="1" layer="-3.00" shape="7582.002939,4451.926745 7579.444629,4453.655407 7573.812545,4454.432278 7569.818948,4454.069402 7567.209157,4453.295917 7504.386724,4530.153910 7503.862755,4533.370455 7504.433591,4535.437681 7505.804347,4537.152428 7508.009262,4538.191243 7514.445184,4539.320312 7523.963200,4540.566502 7547.276152,4540.344382 7558.659534,4540.323187 7571.854620,4538.824437 7585.148914,4536.800481 7641.205199,4526.390328 7643.678988,4525.219970 7644.840508,4523.345933 7644.695988,4521.035094 7642.679339,4518.211662 7582.002939,4451.926745"/>
    <poly id="113224974" type="building" color="255,230,230" fill="1" layer="-1.00" shape="7434.276134,4720.379572 7442.492242,4718.696521 7451.881880,4768.087956 7464.573560,4765.643838 7474.961330,4819.896301 7504.626670,4814.318424 7508.424747,4834.045119 7836.041700,4770.600491 7787.354711,4517.650888 7409.280923,4591.178933 7434.276134,4720.379572"/>
    <poly id="113224999" type="landuse" color="194,194,130" fill="1" layer="-3.00" shape="7144.973490,5193.436891 7295.601459,5183.698649 7300.319979,5181.129284 7302.356843,5175.596434 7302.558112,5171.697598 7299.897591,5138.403965 7298.514398,5134.965026 7294.660046,5131.305808 7283.789808,5124.628857 7281.168984,5123.967048 7264.729511,5126.666343 7143.638838,5148.997258 7139.763523,5150.389884 7136.489546,5152.769757 7133.725385,5158.175097 7134.623402,5184.289194 7136.319449,5188.588590 7137.811396,5190.422784 7141.594712,5191.346537 7144.973490,5193.436891"/>
    <poly id="113225011" type="building" color="255,230,230" fill="1" layer="-1.00" shape="7151.562420,5128.929165 7487.958775,5064.432137 7482.697765,5037.552233 7498.981266,5034.423385 7490.155077,4984.963073 7498.368226,4983.469308 7490.790984,4944.226884 7482.132114,4945.430677 7458.505805,4826.422665 7106.193894,4892.295635 7151.562420,5128.929165"/>
    <poly id="117058541" type="building" color="255,230,230" fill="0" layer="-1.00" shape="6361.265620,7432.590165 6377.371515,7483.023060"/>
    <poly id="117058542" type="building" color="255,230,230" fill="0" layer="-1.00" shape="6592.117394,7418.097158 6590.472331,7467.936662"/>
    <poly id="117058545" type="building" color="255,230,230" fill="0" layer="-1.00" shape="6940.046692,7472.936372 6948.692926,7434.648368"/>
    <poly id="117058547" type="building" color="255,230,230" fill="0" layer="-1.00" shape="6475.292900,7419.929091 6494.685713,7480.164794"/>
    <poly id="117058548" type="building" color="255,230,230" fill="0" layer="-1.00" shape="7059.062659,7670.043272 7118.089080,7464.348357"/>
    <poly id="117058550" type="building" color="255,230,230" fill="0" layer="-1.00" shape="6830.717333,7425.996157 6836.323991,7464.828012"/>
    <poly id="117058551" type="building" color="255,230,230" fill="0" layer="-1.00" shape="7210.524948,7628.348124 7269.845232,7525.798507"/>
    <poly id="117058552" type="building" color="255,230,230" fill="0" layer="-1.00" shape="6711.158541,7422.579856 6718.042440,7460.613831"/>
    <poly id="117790946" type="landuse" color="194,194,130" fill="1" layer="-3.00" shape="14218.966506,6880.798135 14399.474574,6759.286397 14359.090292,6694.669544 14343.453391,6700.799593 14331.475576,6683.396391 14321.309238,6689.405869 14333.948484,6707.751258 14317.123049,6718.713827 14301.232925,6698.838112 14282.187910,6711.140322 14297.103527,6730.714836 14194.943669,6799.121923 14180.312382,6777.928216 14153.983240,6795.854427 14218.966506,6880.798135"/>
    <poly id="118327212" type="water" color="181,209,209" fill="0" layer="-4.00" shape="8451.243244,2098.878185 8454.187978,2067.134491 8458.292833,2034.618487"/>
    <poly id="118327227" type="water" color="181,209,209" fill="0" layer="-4.00" shape="8450.568308,2138.335176 8449.726602,2116.147362"/>
    <poly id="118327233" type="water" color="181,209,209" fill="0" layer="-4.00" shape="8449.726602,2116.147362 8450.189533,2106.345834"/>
    <poly id="118432811" type="landuse" color="194,194,130" fill="1" layer="-3.00" shape="12582.916552,4805.218924 12605.224581,4792.570497 12633.457615,4846.721365 12639.901923,4842.705479 12640.939610,4844.562496 12641.868383,4846.533205 12612.291220,4865.863746 12582.916552,4805.218924"/>
    <poly id="118436713" type="landuse" color="194,194,130" fill="1" layer="-3.00" shape="13748.680949,6654.605500 13837.892421,6858.106809 13845.395350,6863.926174 13852.482483,6875.495551 13853.099175,6877.873889 13856.068137,6889.311968 13853.828570,6899.174318 13867.470592,6923.125928 13870.009110,6928.020588 13874.322123,6936.324881 13894.961287,6918.423004 13986.507249,6906.862407 13994.862965,6889.232700 14041.000986,6887.667178 14148.242823,6795.102309 14138.892751,6780.044612 14182.202740,6749.382844 14241.657574,6707.195079 14329.758977,6651.025595 14178.032932,6421.160402 13748.680949,6654.605500"/>
    <poly id="118436715" type="amenity" color="237,199,199" fill="1" layer="-1.00" shape="13725.401618,6534.920917 13738.001250,6535.342505 13740.327507,6529.705902 13766.508301,6519.535371 13759.845310,6502.939065 13791.147632,6487.248136 13765.716716,6412.803121 13713.621132,6445.187379 13699.919871,6458.218834 13719.735323,6523.709589 13721.389508,6535.187878 13725.401618,6534.920917"/>
    <poly id="118438487" type="leisure" color="207,245,201" fill="1" layer="-2.00" shape="13709.605218,7645.281487 13769.509140,7613.324347 13722.258748,7525.200484 13662.354035,7557.158164 13709.605218,7645.281487"/>
    <poly id="118438487#1" type="sport" color="79,230,125" fill="1" layer="-2.00" shape="13709.605218,7645.281487 13769.509140,7613.324347 13722.258748,7525.200484 13662.354035,7557.158164 13709.605218,7645.281487"/>
    <poly id="118438537" type="leisure" color="207,245,201" fill="1" layer="-2.00" shape="13790.915187,7564.831812 13837.942268,7531.391992 13891.497868,7606.293538 13844.471418,7639.743993 13790.915187,7564.831812"/>
    <poly id="118438537#1" type="sport" color="79,230,125" fill="1" layer="-2.00" shape="13790.915187,7564.831812 13837.942268,7531.391992 13891.497868,7606.293538 13844.471418,7639.743993 13790.915187,7564.831812"/>
    <poly id="118439146" type="leisure" color="207,245,201" fill="1" layer="-2.00" shape="13613.032753,7671.600440 13603.561918,7653.620350 13630.415644,7639.539983 13639.828514,7657.421277 13613.032753,7671.600440"/>
    <poly id="118439146#1" type="sport" color="79,230,125" fill="1" layer="-2.00" shape="13613.032753,7671.600440 13603.561918,7653.620350 13630.415644,7639.539983 13639.828514,7657.421277 13613.032753,7671.600440"/>
    <poly id="118439147" type="leisure" color="207,245,201" fill="1" layer="-2.00" shape="13634.331473,7637.483835 13625.000527,7619.845495 13651.718030,7605.890656 13660.889347,7623.554835 13634.331473,7637.483835"/>
    <poly id="118439147#1" type="sport" color="79,230,125" fill="1" layer="-2.00" shape="13634.331473,7637.483835 13625.000527,7619.845495 13651.718030,7605.890656 13660.889347,7623.554835 13634.331473,7637.483835"/>
    <poly id="118439148" type="leisure" color="207,245,201" fill="1" layer="-2.00" shape="13603.561918,7653.620350 13594.236121,7635.904069 13621.111782,7621.867672 13630.415644,7639.539983 13603.561918,7653.620350"/>
    <poly id="118439148#1" type="sport" color="79,230,125" fill="1" layer="-2.00" shape="13603.561918,7653.620350 13594.236121,7635.904069 13621.111782,7621.867672 13630.415644,7639.539983 13603.561918,7653.620350"/>
    <poly id="118439149" type="leisure" color="207,245,201" fill="1" layer="-2.00" shape="13622.467496,7689.525719 13649.277596,7675.368535 13658.624504,7693.106690 13631.800065,7707.241895 13622.467496,7689.525719"/>
    <poly id="118439149#1" type="sport" color="79,230,125" fill="1" layer="-2.00" shape="13622.467496,7689.525719 13649.277596,7675.368535 13658.624504,7693.106690 13631.800065,7707.241895 13622.467496,7689.525719"/>
    <poly id="118439150" type="leisure" color="207,245,201" fill="1" layer="-2.00" shape="13622.467496,7689.525719 13613.032753,7671.600440 13639.828514,7657.421277 13649.277596,7675.368535 13622.467496,7689.525719"/>
    <poly id="118439150#1" type="sport" color="79,230,125" fill="1" layer="-2.00" shape="13622.467496,7689.525719 13613.032753,7671.600440 13639.828514,7657.421277 13649.277596,7675.368535 13622.467496,7689.525719"/>
    <poly id="118439151" type="leisure" color="207,245,201" fill="1" layer="-2.00" shape="13685.556885,7803.698285 13735.537036,7776.722607 13689.683006,7692.195032 13639.702227,7719.171147 13685.556885,7803.698285"/>
    <poly id="118439151#1" type="sport" color="79,230,125" fill="1" layer="-2.00" shape="13685.556885,7803.698285 13735.537036,7776.722607 13689.683006,7692.195032 13639.702227,7719.171147 13685.556885,7803.698285"/>
    <poly id="118439152" type="leisure" color="207,245,201" fill="1" layer="-2.00" shape="13653.241374,7673.277959 13643.764468,7655.331312 13670.140850,7641.384134 13679.501113,7659.411295 13653.241374,7673.277959"/>
    <poly id="118439152#1" type="sport" color="79,230,125" fill="1" layer="-2.00" shape="13653.241374,7673.277959 13643.764468,7655.331312 13670.140850,7641.384134 13679.501113,7659.411295 13653.241374,7673.277959"/>
    <poly id="118439153" type="leisure" color="207,245,201" fill="1" layer="-2.00" shape="13643.764468,7655.331312 13634.331473,7637.483835 13660.889347,7623.554835 13670.140850,7641.384134 13643.764468,7655.331312"/>
    <poly id="118439153#1" type="sport" color="79,230,125" fill="1" layer="-2.00" shape="13643.764468,7655.331312 13634.331473,7637.483835 13660.889347,7623.554835 13670.140850,7641.384134 13643.764468,7655.331312"/>
    <poly id="118439154" type="leisure" color="207,245,201" fill="1" layer="-2.00" shape="13662.608901,7691.004538 13653.241374,7673.277959 13679.501113,7659.411295 13688.752493,7677.240626 13662.608901,7691.004538"/>
    <poly id="118439154#1" type="sport" color="79,230,125" fill="1" layer="-2.00" shape="13662.608901,7691.004538 13653.241374,7673.277959 13679.501113,7659.411295 13688.752493,7677.240626 13662.608901,7691.004538"/>
    <poly id="118441427" type="amenity" color="237,199,199" fill="1" layer="-1.00" shape="13125.772691,7338.024855 13207.611868,7383.062158 13270.938558,7416.942237 13258.108166,7440.458232 13211.557516,7525.793934 13242.598136,7538.097233 13280.734985,7557.986149 13320.650490,7583.354059 13332.582936,7590.197762 13341.397894,7573.023899 13475.715233,7508.868109 13513.664167,7490.880231 13529.299192,7495.784150 13595.129902,7485.822147 13537.272099,7379.233246 13206.194159,7173.776247 13125.772691,7338.024855"/>
    <poly id="118443029" type="landuse" color="194,194,130" fill="1" layer="-3.00" shape="12698.597455,7294.274082 12802.090348,7270.264244 12828.582471,7278.939710 12839.981460,7273.378003 12847.373437,7267.661104 12837.367543,7256.113780 12843.166120,7249.509058 12801.981375,7146.104370 12688.155813,7173.972295 12706.803394,7274.843066 12696.667284,7276.160189 12698.597455,7294.274082"/>
    <poly id="118443033" type="amenity" color="237,199,199" fill="1" layer="-1.00" shape="12710.348177,7348.938555 12831.301119,7392.160366 12929.286650,7366.974451 12952.085923,7378.681301 13072.136228,7438.072171 13101.470637,7376.004452 13002.112612,7325.051525 12893.668375,7265.781182 12851.861508,7305.232267 12713.126078,7336.793928 12710.348177,7348.938555"/>
    <poly id="118447648" type="tourism" color="207,245,201" fill="1" layer="-2.00" shape="10493.214969,5956.965699 10594.035279,6000.962553 10810.483965,6109.174656 10912.592963,6193.913174 10924.470591,6198.049152 11127.433388,6101.977619 11067.588195,6012.971507 11035.478127,5944.998447 11008.927166,5894.912010 10982.675624,5858.036319 10896.046210,5773.678841 10829.133510,5714.207918 10493.214969,5956.965699"/>
    <poly id="118447652" type="forest" color="140,196,107" fill="1" layer="-4.00" shape="11710.067884,7532.974978 11708.285983,7459.585264 11709.087994,7455.016730 11712.728560,7451.585707 11812.239262,7432.829997 11816.700260,7433.975479 11819.204508,7437.579374 11815.089708,7521.560238 11710.067884,7532.974978"/>
    <poly id="118447653" type="landuse" color="194,194,130" fill="1" layer="-3.00" shape="11710.067884,7532.974978 11708.285983,7459.585264 11709.087994,7455.016730 11712.728560,7451.585707 11812.239262,7432.829997 11816.700260,7433.975479 11819.204508,7437.579374 11815.089708,7521.560238 11915.798942,7510.623118 11925.029127,7232.694728 11913.069970,7135.169032 11971.474775,7182.139148 11977.564920,7178.630916 12005.391668,7163.296206 12060.645877,7140.235107 12061.647325,7145.441659 12048.946459,7151.301436 12063.848392,7184.777158 12029.604329,7198.676129 12006.447178,7215.440937 12025.438395,7263.543822 12065.680692,7316.030488 12090.648474,7333.648162 12110.377914,7339.712901 12127.897441,7341.633019 12143.865093,7338.325632 12160.177184,7332.685279 12181.713367,7326.515896 12201.832002,7325.118014 12223.469338,7334.911920 12240.119935,7341.235475 12252.634649,7344.458917 12265.921388,7346.096323 12311.485996,7340.556015 12287.869442,6996.734943 12329.347920,6993.901207 12326.950484,6959.064864 12404.387604,6953.766973 12396.332967,6947.327881 12394.058349,6916.393885 12389.387950,6884.200807 12376.546651,6828.293092 12364.469359,6782.859779 12263.682525,6797.204806 12245.223093,6643.461850 12316.373256,6646.069742 12278.674737,6561.826867 12274.386453,6546.692096 12268.436463,6539.738643 12096.761738,6493.430856 12048.343332,6482.960369 12018.754195,6478.641852 11992.154872,6478.450595 11943.250103,6481.654411 11855.201760,6488.889279 11785.336919,6496.772544 11736.767869,6503.119358 11654.326334,6502.354208 11621.084260,6499.422166 11535.133706,6482.984128 11424.130459,6453.184723 11417.570751,6454.123040 11413.970799,6458.142995 11391.473343,6534.295999 11382.655497,6575.460568 11404.583648,6706.537580 11401.248377,6710.551564 11368.063446,6682.097425 11364.715309,6681.850559 11361.641328,6684.178665 11359.700476,6698.419066 11358.941226,6717.483555 11361.341537,6780.456663 11364.336080,6841.380311 11367.012568,6910.711116 11371.439278,7012.144648 11378.731271,7071.279931 11417.082908,7070.612288 11653.072646,7063.664905 11621.086003,7416.394873 11627.142526,7530.708696 11631.615181,7541.310643 11647.157432,7543.251506 11710.067884,7532.974978"/>
    <poly id="118447659" type="tourism" color="207,245,201" fill="1" layer="-2.00" shape="10404.588962,6437.664721 10390.152720,6414.485292 10377.066943,6357.419162 10384.557614,6344.787260 10395.154769,6323.628844 10401.067386,6295.857351 10392.569949,6248.510593 10516.238331,6211.377809 10559.372290,6197.177212 10582.029142,6189.306792 10566.455828,6007.098161 10684.797990,6060.610623 10751.448806,6092.148663 10812.236567,6125.300584 10899.340916,6198.252924 10901.689215,6204.441135 10896.344703,6212.283868 10888.359158,6217.605439 10670.388798,6333.498649 10404.588962,6437.664721"/>
    <poly id="120783665" type="leisure" color="207,245,201" fill="1" layer="-2.00" shape="9338.335433,7189.254371 9350.024728,7185.246813 9329.216009,7130.107582 9317.524849,7133.736944 9338.335433,7189.254371"/>
    <poly id="120783668" type="tourism" color="207,245,201" fill="1" layer="-2.00" shape="9434.419390,7178.964598 9414.121846,7204.976931 9343.498685,7227.197261 9338.273518,7227.072849 9333.001174,7225.202757 9327.422742,7220.624994 9309.629172,7192.997574 9301.887802,7170.100749 9292.917788,7147.977685 9289.400180,7142.184248 9277.920612,7123.267677 9263.270978,7102.766429 9258.020647,7090.982690 9258.002577,7079.323123 9262.755694,7069.534002 9271.010378,7060.910290 9271.721194,7055.798229 9272.288303,7051.701940 9278.895677,7046.832270 9314.592030,7084.716889 9349.695706,7107.472997 9384.860726,7133.209672 9432.534188,7177.227839 9434.419390,7178.964598"/>
    <poly id="120783669" type="parking" color="184,184,179" fill="1" layer="-1.00" shape="8635.326315,7659.058746 8649.108099,7656.781184 8644.769034,7619.765400 8626.903852,7621.002758 8635.326315,7659.058746"/>
    <poly id="120784010" type="landuse" color="194,194,130" fill="1" layer="-3.00" shape="9568.678953,7579.190847 9569.567797,7596.348836 9572.173320,7637.599482 9580.002023,7653.774597 9626.125391,7656.675225 9630.969453,7651.445980 9658.498322,7652.626946 9664.089986,7658.117067 9687.296251,7658.741068 9696.593483,7609.128467 9695.260043,7601.393206 9692.138050,7595.512548 9687.898485,7590.992671 9681.034339,7588.001706 9667.731053,7585.670463 9623.540336,7580.243941 9592.990735,7577.307935 9576.599418,7577.851647 9568.678953,7579.190847"/>
    <poly id="120784012" type="landuse" color="194,194,130" fill="1" layer="-3.00" shape="9486.439498,7665.539327 9565.808323,7640.571816 9563.688938,7577.770205 9510.150117,7584.575611 9504.813873,7588.080650 9498.745056,7596.664846 9495.290179,7608.404305 9491.839931,7627.909559 9492.344917,7642.595294 9491.379393,7652.074550 9488.862780,7660.410145 9486.439498,7665.539327"/>
    <poly id="120784013" type="landuse" color="194,194,130" fill="1" layer="-3.00" shape="9717.960361,7508.415569 9705.800465,7578.921555 9815.087765,7582.999425 9814.873948,7514.201752 9719.954590,7507.935866 9717.960361,7508.415569"/>
    <poly id="121127817" type="water" color="181,209,209" fill="0" layer="-4.00" shape="6888.107455,2864.425872 6873.664188,2836.994416 6857.325388,2809.574139 6841.137397,2781.460551 6824.174324,2754.477824 6800.651209,2709.925480 6778.786894,2663.020026 6775.188601,2654.926940 6772.171926,2646.375144 6765.761001,2628.924397 6760.644039,2613.746337 6755.862986,2599.517227"/>
    <poly id="121127824" type="water" color="181,209,209" fill="0" layer="-4.00" shape="6828.582448,2428.570024 6831.818503,2421.239824 6833.505766,2413.845872 6834.134193,2410.927211 6834.619902,2408.757349"/>
    <poly id="121127827" type="water" color="181,209,209" fill="0" layer="-4.00" shape="6681.470305,2127.451963 6867.363253,1983.641057 6979.933531,1905.408970"/>
    <poly id="121127830" type="water" color="181,209,209" fill="0" layer="-4.00" shape="6368.283047,2183.915038 6390.957839,2181.878427 6412.474938,2183.362794 6425.108177,2177.290610 6439.151781,2174.867955 6454.332834,2176.346044 6468.661483,2179.513171 6485.559923,2176.077672 6501.043169,2169.671521 6519.563760,2169.112961 6549.202506,2162.662911 6626.327874,2150.522742 6662.671873,2137.540371"/>
    <poly id="121127832" type="water" color="181,209,209" fill="0" layer="-4.00" shape="7105.588189,1736.618659 7097.877455,1700.873433 7093.049864,1682.862279 7090.993918,1674.254417 7089.292679,1664.125105 7088.732902,1652.433656 7089.358946,1645.832385 7090.254499,1639.725469 7091.688426,1629.522692 7093.850049,1618.245891 7099.246263,1595.667155 7101.301263,1584.003448 7103.915729,1572.415641 7110.770916,1549.324320 7118.800500,1526.071987 7123.268831,1510.891568 7128.253286,1495.721317 7132.074507,1484.160893"/>
    <poly id="121127835" type="water" color="181,209,209" fill="0" layer="-4.00" shape="6571.088290,2452.215472 6828.029828,2394.659677 6832.224416,2393.715567"/>
    <poly id="121127837" type="water" color="181,209,209" fill="0" layer="-4.00" shape="6190.965923,1611.077508 6139.161077,1640.149439 6049.268338,1676.030022 5997.206828,1693.894401 5922.267993,1719.154287 5812.815662,1778.488579 5710.734622,1838.151255 5632.835245,1883.045457 5617.018039,1898.585600 5602.187249,1935.130804 5590.826631,1952.523502 5604.442986,1998.474056"/>
    <poly id="121127855" type="water" color="181,209,209" fill="0" layer="-4.00" shape="6570.192852,1864.880334 6507.896851,1681.064591"/>
    <poly id="121127873" type="water" color="181,209,209" fill="0" layer="-4.00" shape="6571.088290,2452.215472 6555.520698,2455.597138"/>
    <poly id="121127880" type="water" color="181,209,209" fill="0" layer="-4.00" shape="6876.275426,2871.323729 6888.107455,2864.425872"/>
    <poly id="121127885" type="water" color="181,209,209" fill="0" layer="-4.00" shape="6662.671873,2137.540371 6670.785509,2133.700192"/>
    <poly id="121127889" type="water" color="181,209,209" fill="0" layer="-4.00" shape="5789.574729,2278.368677 5811.252880,2283.418180 5832.547619,2292.293117 5880.053782,2317.236711 5958.806770,2353.112639 5970.576676,2358.608634 6065.599863,2326.532379 6158.230196,2267.466897"/>
    <poly id="121127908" type="water" color="181,209,209" fill="0" layer="-4.00" shape="5808.627077,2211.116013 5833.216650,2195.758087 5852.272041,2179.518852 5873.084721,2180.383448 5903.759766,2177.398693 5928.688341,2161.031870 5929.966206,2138.448983 5918.810517,2096.489353 5930.169851,2065.167538 5976.189533,1982.413084"/>
    <poly id="121170798" type="landuse" color="194,194,130" fill="1" layer="-3.00" shape="6180.442916,2736.942392 6350.770278,2776.291709 6366.195142,2673.812612 6363.743789,2668.574401 6356.467662,2667.099338 6190.190040,2701.397906 6180.442916,2736.942392"/>
    <poly id="121170799" type="landuse" color="194,194,130" fill="1" layer="-3.00" shape="6194.334760,2686.847205 6202.936513,2687.200375 6276.617303,2673.578277 6360.507400,2653.986534 6366.832772,2651.200478 6370.790330,2646.423066 6374.293935,2630.374503 6371.360709,2614.455476 6364.146532,2599.060197 6347.434736,2568.089871 6334.652588,2553.916312 6218.653608,2580.085385 6211.028878,2588.943779 6193.876883,2680.148975 6194.334760,2686.847205"/>
    <poly id="121170804" type="water" color="181,209,209" fill="0" layer="-4.00" shape="6525.450892,2534.232237 6535.509454,2530.735422"/>
    <poly id="121170809" type="water" color="181,209,209" fill="0" layer="-4.00" shape="6356.461804,2805.441357 6089.203116,2738.597572 5886.056797,2667.345199 5884.592230,2627.859847"/>
    <poly id="121170811" type="water" color="181,209,209" fill="0" layer="-4.00" shape="6347.662246,2531.045740 6348.086735,2521.856702 6399.269093,2509.890890 6468.017239,2494.452022 6469.504793,2489.254472"/>
    <poly id="121170812" type="water" color="181,209,209" fill="0" layer="-4.00" shape="6876.275426,2871.323729 6787.777443,2903.521070 6788.932181,2942.869070 6753.257573,2936.064013 6711.493961,2928.757080 6607.964238,2870.889500 6578.376588,2863.942370 6546.265233,2856.075742 6514.832657,2847.147472 6482.245891,2837.156228"/>
    <poly id="121170817" type="water" color="181,209,209" fill="0" layer="-4.00" shape="6535.509454,2530.735422 6556.028874,2529.873975 6570.607963,2528.329123 6587.248862,2543.313630 6604.758993,2546.372833 6622.750356,2555.962900 6630.818514,2567.399793 6635.185489,2577.343880 6644.389006,2581.644520 6686.379042,2579.488532 6728.028937,2574.425859 6735.105674,2576.017399 6739.627432,2581.585387 6744.233616,2590.745111 6750.243407,2596.166866 6755.862986,2599.517227"/>
    <poly id="129691756" type="water" color="181,209,209" fill="0" layer="-4.00" shape="4584.181230,6890.396815 4586.433558,6873.375195 4626.100251,6856.224884 4643.861433,6837.162854 4654.240026,6813.994064 4668.888288,6792.013707 4663.616996,6776.040158 4683.923448,6743.721527 4702.968263,6731.126763 4710.148338,6718.037234 4714.295919,6695.507309 4723.001230,6668.451153 4782.646157,6527.399930 4690.738021,6361.914804 4666.583670,6324.641387 4666.786035,6280.442849"/>
    <poly id="129691757" type="water" color="181,209,209" fill="0" layer="-4.00" shape="5821.327537,7150.471263 5821.196228,7167.831290 5822.339078,7184.304371 5719.802979,7359.984545"/>
    <poly id="129691758" type="water" color="181,209,209" fill="0" layer="-4.00" shape="6050.383441,7403.949306 5719.802979,7359.984545"/>
    <poly id="129691759" type="water" color="181,209,209" fill="0" layer="-4.00" shape="5822.662013,7136.275919 5821.207583,7143.653732 5821.327537,7150.471263"/>
    <poly id="129691760" type="water" color="181,209,209" fill="0" layer="-4.00" shape="5839.966832,7106.647963 5822.662013,7136.275919"/>
    <poly id="129691761" type="water" color="181,209,209" fill="0" layer="-4.00" shape="5788.620493,7052.179358 5802.856574,7054.044562"/>
    <poly id="129691762" type="water" color="181,209,209" fill="0" layer="-4.00" shape="5715.022865,6553.268277 5740.714788,6604.350850"/>
    <poly id="129691763" type="water" color="181,209,209" fill="0" layer="-4.00" shape="5802.856574,7054.044562 5834.689249,7059.709221"/>