<?xml version="1.0" encoding="UTF-8"?>
<!-- generated on 2020-07-15 07:15:06.431258 by runner.py v1_6_0+1152-f241c9e80f
  options: 
-->
<routes xmlns:xsi="http://www.w3.org/2001/XMLSchema-instance" xsi:noNamespaceSchemaLocation="http://sumo.dlr.de/xsd/routes_file.xsd">
    <vType id="bus" vClass="bus"/>
    <vType id="tram" vClass="tram"/>
    <vType id="train" vClass="rail"/>
    <vType id="subway" vClass="rail_urban"/>
    <vType id="light_rail" vClass="rail_urban"/>
    <vType id="monorail" vClass="rail"/>
    <vType id="trolleybus" vClass="bus"/>
    <vType id="aerialway" vClass="bus"/>
    <vType id="ferry" vClass="ship"/>
    <route id="train_Southeastern:_Ramsgate_-_London_Charing_Cross:0" edges="4412720#2 4412720#2.94 785907311 785907311.88 81100788#0 81100788#1 81100788#1.4785" >
        <stop busStop="3453612248" duration="30.00" until="31.0"/> <!-- Canterbury West -->
        <stop busStop="26867652" duration="30.00" until="328.0"/> <!-- Chartham -->
    </route>
    <route id="train_Southeastern:_London_Charing_Cross_-_Ramsgate:0" edges="196370496#0 196370496#0.114 196370496#1 785907310 194554546 194554546.31 785907309 785907309.3 194560711#0 194560711#1" >
        <stop busStop="2051085932" duration="30.00" until="31.0"/> <!-- Chartham -->
        <stop busStop="3453612250" duration="30.00" until="315.0"/> <!-- Canterbury West -->
        <stop busStop="6688385696" duration="30.00" until="449.0"/> <!-- Sturry -->
    </route>
    <flow id="train_Southeastern:_Ramsgate_-_London_Charing_Cross:0" type="train" route="train_Southeastern:_Ramsgate_-_London_Charing_Cross:0" begin="303.0" end="5703.0" period="600" line="Southeastern:_Ramsgate_-_London_Charing_Cross:0" >
        <param key="name" value="Southeastern: Ramsgate - London Charing Cross"/>
        <param key="completeness" value="0.11"/>
    </flow>
    <flow id="train_Southeastern:_London_Charing_Cross_-_Ramsgate:0" type="train" route="train_Southeastern:_London_Charing_Cross_-_Ramsgate:0" begin="326.0" end="5726.0" period="600" line="Southeastern:_London_Charing_Cross_-_Ramsgate:0" >
        <param key="name" value="Southeastern: London Charing Cross - Ramsgate"/>
        <param key="completeness" value="0.17"/>
    </flow>
</routes>
